<?xml version="1.0" encoding="UTF-8"?>

<!-- generated on 2024-03-25 19:34:54 by Eclipse SUMO sumo Version 1.19.0
-->

<configuration xmlns:xsi="http://www.w3.org/2001/XMLSchema-instance" xsi:noNamespaceSchemaLocation="http://sumo.dlr.de/xsd/sumoConfiguration.xsd">

    <input>
        <net-file value="zig4.net.xml"/>
        <route-files value="zig.rou.xml"/>
    </input>

</configuration>
