<?xml version="1.0" encoding="UTF-8"?>

<!-- generated on 2024-03-25 19:34:54 by Eclipse SUMO netedit Version 1.19.0
<configuration xmlns:xsi="http://www.w3.org/2001/XMLSchema-instance" xsi:noNamespaceSchemaLocation="http://sumo.dlr.de/xsd/neteditConfiguration.xsd">

    <input>
        <sumocfg-file value="D:\simulations\simulation\zig2.sumocfg"/>
        <route-files value="D:\simulations\simulation\zig.rou.xml"/>
        <sumo-net-file value="D:\simulations\simulation\zig4.net.xml"/>
    </input>

    <output>
        <output-file value="D:\simulations\simulation\zig4.net.xml"/>
    </output>

    <processing>
        <offset.disable-normalization value="true"/>
    </processing>

    <junctions>
        <no-turnarounds value="true"/>
    </junctions>

    <netedit>
        <new-network value="false"/>
    </netedit>

</configuration>
-->

<net version="1.16" junctionCornerDetail="5" limitTurnSpeed="5.50" xmlns:xsi="http://www.w3.org/2001/XMLSchema-instance" xsi:noNamespaceSchemaLocation="http://sumo.dlr.de/xsd/net_file.xsd">

    <location netOffset="0.00,0.00" convBoundary="-50.59,6.48,261.15,147.25" origBoundary="10000000000.00,10000000000.00,-10000000000.00,-10000000000.00" projParameter="!"/>

    <edge id=":J10_0" function="internal">
        <lane id=":J10_0_0" index="0" speed="4.03" length="1.64" shape="168.02,80.40 167.65,80.18 167.27,80.07 166.88,80.06 166.47,80.17"/>
    </edge>
    <edge id=":J10_1" function="internal">
        <lane id=":J10_1_0" index="0" speed="6.32" length="4.92" shape="165.34,77.18 166.57,76.86 167.75,76.87 168.89,77.21 169.98,77.87"/>
    </edge>
    <edge id=":J5_0" function="internal">
        <lane id=":J5_0_0" index="0" speed="6.07" length="8.20" shape="35.95,116.44 34.02,117.65 32.21,117.90 30.52,117.21 28.95,115.57"/>
    </edge>
    <edge id=":J5_1" function="internal">
        <lane id=":J5_1_0" index="0" speed="3.90" length="2.73" shape="31.55,113.71 32.08,114.25 32.64,114.49 33.24,114.40 33.89,114.00"/>
    </edge>
    <edge id=":J6_0" function="internal">
        <lane id=":J6_0_0" index="0" speed="3.90" length="2.66" shape="164.39,10.09 163.87,9.59 163.31,9.38 162.72,9.47 162.10,9.85"/>
    </edge>
    <edge id=":J6_1" function="internal">
        <lane id=":J6_1_0" index="0" speed="6.07" length="7.97" shape="160.03,7.41 161.89,6.25 163.66,5.98 165.34,6.60 166.92,8.13"/>
    </edge>
    <edge id=":J9_0" function="internal">
        <lane id=":J9_0_0" index="0" speed="6.44" length="4.38" shape="32.98,130.72 31.89,131.01 30.83,131.04 29.79,130.81 28.77,130.32"/>
    </edge>
    <edge id=":J9_1" function="internal">
        <lane id=":J9_1_0" index="0" speed="4.09" length="1.46" shape="30.44,127.60 30.78,127.76 31.13,127.83 31.48,127.82 31.85,127.73"/>
    </edge>

    <edge id="-E2" from="J5" to="J4" priority="-1">
        <lane id="-E2_0" index="0" speed="13.89" length="131.98" shape="28.95,115.57 -47.84,8.23"/>
    </edge>
    <edge id="-E3" from="J6" to="J5" priority="-1">
        <lane id="-E3_0" index="0" speed="13.89" length="165.15" shape="162.10,9.85 35.95,116.44"/>
    </edge>
    <edge id="-E4" from="J7" to="J6" priority="-1">
        <lane id="-E4_0" index="0" speed="13.89" length="155.40" shape="259.88,132.70 164.39,10.09"/>
    </edge>
    <edge id="-E5" from="J9" to="J8" priority="-1">
        <lane id="-E5_0" index="0" speed="13.89" length="94.05" shape="28.77,130.32 -51.42,81.19"/>
    </edge>
    <edge id="-E6" from="J10" to="J9" priority="-1">
        <lane id="-E6_0" index="0" speed="13.89" length="142.74" shape="166.47,80.17 32.98,130.72"/>
    </edge>
    <edge id="-E7" from="J11" to="J10" priority="-1">
        <lane id="-E7_0" index="0" speed="13.89" length="111.07" shape="255.75,148.51 168.02,80.40"/>
    </edge>
    <edge id="E2" from="J4" to="J5" priority="-1">
        <lane id="E2_0" index="0" speed="13.89" length="131.98" shape="-45.23,6.37 31.55,113.71"/>
    </edge>
    <edge id="E3" from="J5" to="J6" priority="-1">
        <lane id="E3_0" index="0" speed="13.89" length="165.15" shape="33.89,114.00 160.03,7.41"/>
    </edge>
    <edge id="E4" from="J6" to="J7" priority="-1">
        <lane id="E4_0" index="0" speed="13.89" length="155.40" shape="166.92,8.13 262.41,130.73"/>
    </edge>
    <edge id="E5" from="J8" to="J9" priority="-1">
        <lane id="E5_0" index="0" speed="13.89" length="94.05" shape="-49.75,78.46 30.44,127.60"/>
    </edge>
    <edge id="E6" from="J9" to="J10" priority="-1">
        <lane id="E6_0" index="0" speed="13.89" length="142.74" shape="31.85,127.73 165.34,77.18"/>
    </edge>
    <edge id="E7" from="J10" to="J11" priority="-1">
        <lane id="E7_0" index="0" speed="13.89" length="111.07" shape="169.98,77.87 257.71,145.99"/>
    </edge>

    <junction id="J10" type="priority" x="167.58" y="78.04" incLanes="-E7_0 E6_0" intLanes=":J10_0_0 :J10_1_0" shape="167.04,81.67 170.96,76.61 169.01,75.53 167.99,75.28 166.95,75.22 165.87,75.35 164.77,75.68">
        <request index="0" response="00" foes="00" cont="0"/>
        <request index="1" response="00" foes="00" cont="0"/>
    </junction>
    <junction id="J11" type="dead_end" x="256.73" y="147.25" incLanes="E7_0" intLanes="" shape="256.73,147.25 258.69,144.72 256.73,147.25"/>
    <junction id="J4" type="dead_end" x="-46.53" y="7.30" incLanes="-E2_0" intLanes="" shape="-46.53,7.30 -49.14,9.16 -46.53,7.30"/>
    <junction id="J5" type="priority" x="32.27" y="117.46" incLanes="-E3_0 E2_0" intLanes=":J5_0_0 :J5_1_0" shape="36.98,117.67 32.85,112.78 27.65,116.50 29.03,118.10 30.48,119.14 32.00,119.61 33.59,119.53 35.25,118.88">
        <request index="0" response="00" foes="00" cont="0"/>
        <request index="1" response="00" foes="00" cont="0"/>
    </junction>
    <junction id="J6" type="priority" x="163.61" y="6.48" incLanes="-E4_0 E3_0" intLanes=":J6_0_0 :J6_1_0" shape="163.13,11.08 168.18,7.14 166.79,5.66 165.34,4.70 163.84,4.28 162.28,4.38 160.67,5.02 159.00,6.19">
        <request index="0" response="00" foes="00" cont="0"/>
        <request index="1" response="00" foes="00" cont="0"/>
    </junction>
    <junction id="J7" type="dead_end" x="261.15" y="131.71" incLanes="E4_0" intLanes="" shape="261.15,131.71 263.67,129.75 261.15,131.71"/>
    <junction id="J8" type="dead_end" x="-50.59" y="79.83" incLanes="-E5_0" intLanes="" shape="-50.59,79.83 -52.26,82.56 -50.59,79.83"/>
    <junction id="J9" type="priority" x="30.95" y="129.78" incLanes="-E6_0 E5_0" intLanes=":J9_0_0 :J9_1_0" shape="33.55,132.22 31.28,126.23 27.94,131.69 29.75,132.48 30.68,132.64 31.62,132.65 32.58,132.51">
        <request index="0" response="00" foes="00" cont="0"/>
        <request index="1" response="00" foes="00" cont="0"/>
    </junction>

    <connection from="-E3" to="-E2" fromLane="0" toLane="0" via=":J5_0_0" dir="l" state="M"/>
    <connection from="-E4" to="-E3" fromLane="0" toLane="0" via=":J6_0_0" dir="r" state="M"/>
    <connection from="-E6" to="-E5" fromLane="0" toLane="0" via=":J9_0_0" dir="l" state="M"/>
    <connection from="-E7" to="-E6" fromLane="0" toLane="0" via=":J10_0_0" dir="r" state="M"/>
    <connection from="E2" to="E3" fromLane="0" toLane="0" via=":J5_1_0" dir="r" state="M"/>
    <connection from="E3" to="E4" fromLane="0" toLane="0" via=":J6_1_0" dir="l" state="M"/>
    <connection from="E5" to="E6" fromLane="0" toLane="0" via=":J9_1_0" dir="r" state="M"/>
    <connection from="E6" to="E7" fromLane="0" toLane="0" via=":J10_1_0" dir="l" state="M"/>

    <connection from=":J10_0" to="-E6" fromLane="0" toLane="0" dir="r" state="M"/>
    <connection from=":J10_1" to="E7" fromLane="0" toLane="0" dir="l" state="M"/>
    <connection from=":J5_0" to="-E2" fromLane="0" toLane="0" dir="l" state="M"/>
    <connection from=":J5_1" to="E3" fromLane="0" toLane="0" dir="r" state="M"/>
    <connection from=":J6_0" to="-E3" fromLane="0" toLane="0" dir="r" state="M"/>
    <connection from=":J6_1" to="E4" fromLane="0" toLane="0" dir="l" state="M"/>
    <connection from=":J9_0" to="-E5" fromLane="0" toLane="0" dir="l" state="M"/>
    <connection from=":J9_1" to="E6" fromLane="0" toLane="0" dir="r" state="M"/>

</net>
