<?xml version="1.0" encoding="UTF-8"?>

<!-- generated on 2024-03-24 01:11:34 by Eclipse SUMO netedit Version 1.19.0
<configuration xmlns:xsi="http://www.w3.org/2001/XMLSchema-instance" xsi:noNamespaceSchemaLocation="http://sumo.dlr.de/xsd/neteditConfiguration.xsd">

    <input>
        <sumocfg-file value="D:\simulations\simulation\loopa.sumocfg"/>
        <route-files value="D:\simulations\simulation\loopa.rou.xml"/>
        <sumo-net-file value="D:\simulations\simulation\loopa.net.xml"/>
    </input>

    <output>
        <output-file value="D:\simulations\simulation\loopa.net.xml"/>
    </output>

    <processing>
        <offset.disable-normalization value="true"/>
    </processing>

    <junctions>
        <no-turnarounds value="true"/>
    </junctions>

    <netedit>
        <new-network value="false"/>
    </netedit>

</configuration>
-->

<net version="1.16" junctionCornerDetail="5" limitTurnSpeed="5.50" xmlns:xsi="http://www.w3.org/2001/XMLSchema-instance" xsi:noNamespaceSchemaLocation="http://sumo.dlr.de/xsd/net_file.xsd">

    <location netOffset="0.00,0.00" convBoundary="0.00,0.00,100.00,100.00" origBoundary="10000000000.00,10000000000.00,-10000000000.00,-10000000000.00" projParameter="!"/>

    <edge id=":J4_0" function="internal">
        <lane id=":J4_0_0" index="0" speed="6.08" length="7.74" shape="3.20,101.60 1.10,101.30 -0.40,100.40 -1.30,98.90 -1.60,96.80"/>
    </edge>
    <edge id=":J4_1" function="internal">
        <lane id=":J4_1_0" index="0" speed="3.90" length="2.58" shape="1.60,96.80 1.70,97.50 2.00,98.00 2.50,98.30 3.20,98.40"/>
    </edge>
    <edge id=":J5_0" function="internal">
        <lane id=":J5_0_0" index="0" speed="6.08" length="7.74" shape="-1.60,3.20 -1.30,1.10 -0.40,-0.40 1.10,-1.30 3.20,-1.60"/>
    </edge>
    <edge id=":J5_1" function="internal">
        <lane id=":J5_1_0" index="0" speed="3.90" length="2.58" shape="3.20,1.60 2.50,1.70 2.00,2.00 1.70,2.50 1.60,3.20"/>
    </edge>
    <edge id=":J6_0" function="internal">
        <lane id=":J6_0_0" index="0" speed="3.90" length="2.58" shape="98.40,3.20 98.30,2.50 98.00,2.00 97.50,1.70 96.80,1.60"/>
    </edge>
    <edge id=":J6_1" function="internal">
        <lane id=":J6_1_0" index="0" speed="6.08" length="7.74" shape="96.80,-1.60 98.90,-1.30 100.40,-0.40 101.30,1.10 101.60,3.20"/>
    </edge>
    <edge id=":J7_0" function="internal">
        <lane id=":J7_0_0" index="0" speed="6.08" length="7.74" shape="101.60,96.80 101.30,98.90 100.40,100.40 98.90,101.30 96.80,101.60"/>
    </edge>
    <edge id=":J7_1" function="internal">
        <lane id=":J7_1_0" index="0" speed="3.90" length="2.58" shape="96.80,98.40 97.50,98.30 98.00,98.00 98.30,97.50 98.40,96.80"/>
    </edge>

    <edge id="-E1" from="J5" to="J4" priority="-1">
        <lane id="-E1_0" index="0" speed="13.89" length="93.60" shape="1.60,3.20 1.60,96.80"/>
    </edge>
    <edge id="-E2" from="J6" to="J5" priority="-1">
        <lane id="-E2_0" index="0" speed="13.89" length="93.60" shape="96.80,1.60 3.20,1.60"/>
    </edge>
    <edge id="-E3" from="J7" to="J6" priority="-1">
        <lane id="-E3_0" index="0" speed="13.89" length="93.60" shape="98.40,96.80 98.40,3.20"/>
    </edge>
    <edge id="-E4" from="J4" to="J7" priority="-1">
        <lane id="-E4_0" index="0" speed="13.89" length="93.60" shape="3.20,98.40 96.80,98.40"/>
    </edge>
    <edge id="E1" from="J4" to="J5" priority="-1">
        <lane id="E1_0" index="0" speed="13.89" length="93.60" shape="-1.60,96.80 -1.60,3.20"/>
    </edge>
    <edge id="E2" from="J5" to="J6" priority="-1">
        <lane id="E2_0" index="0" speed="13.89" length="93.60" shape="3.20,-1.60 96.80,-1.60"/>
    </edge>
    <edge id="E3" from="J6" to="J7" priority="-1">
        <lane id="E3_0" index="0" speed="13.89" length="93.60" shape="101.60,3.20 101.60,96.80"/>
    </edge>
    <edge id="E4" from="J7" to="J4" priority="-1">
        <lane id="E4_0" index="0" speed="13.89" length="93.60" shape="96.80,101.60 3.20,101.60"/>
    </edge>

    <junction id="J4" type="priority" x="0.00" y="100.00" incLanes="E4_0 -E1_0" intLanes=":J4_0_0 :J4_1_0" shape="3.20,103.20 3.20,96.80 -3.20,96.80 -2.49,100.36 -1.60,101.60 -0.36,102.49 1.24,103.02">
        <request index="0" response="00" foes="00" cont="0"/>
        <request index="1" response="00" foes="00" cont="0"/>
    </junction>
    <junction id="J5" type="priority" x="0.00" y="0.00" incLanes="E1_0 -E2_0" intLanes=":J5_0_0 :J5_1_0" shape="-3.20,3.20 3.20,3.20 3.20,-3.20 -0.36,-2.49 -1.60,-1.60 -2.49,-0.36 -3.02,1.24">
        <request index="0" response="00" foes="00" cont="0"/>
        <request index="1" response="00" foes="00" cont="0"/>
    </junction>
    <junction id="J6" type="priority" x="100.00" y="0.00" incLanes="-E3_0 E2_0" intLanes=":J6_0_0 :J6_1_0" shape="96.80,3.20 103.20,3.20 102.49,-0.36 101.60,-1.60 100.36,-2.49 98.76,-3.02 96.80,-3.20">
        <request index="0" response="00" foes="00" cont="0"/>
        <request index="1" response="00" foes="00" cont="0"/>
    </junction>
    <junction id="J7" type="priority" x="100.00" y="100.00" incLanes="E3_0 -E4_0" intLanes=":J7_0_0 :J7_1_0" shape="103.20,96.80 96.80,96.80 96.80,103.20 100.36,102.49 101.60,101.60 102.49,100.36 103.02,98.76">
        <request index="0" response="00" foes="00" cont="0"/>
        <request index="1" response="00" foes="00" cont="0"/>
    </junction>

    <connection from="-E1" to="-E4" fromLane="0" toLane="0" via=":J4_1_0" dir="r" state="M"/>
    <connection from="-E2" to="-E1" fromLane="0" toLane="0" via=":J5_1_0" dir="r" state="M"/>
    <connection from="-E3" to="-E2" fromLane="0" toLane="0" via=":J6_0_0" dir="r" state="M"/>
    <connection from="-E4" to="-E3" fromLane="0" toLane="0" via=":J7_1_0" dir="r" state="M"/>
    <connection from="E1" to="E2" fromLane="0" toLane="0" via=":J5_0_0" dir="l" state="M"/>
    <connection from="E2" to="E3" fromLane="0" toLane="0" via=":J6_1_0" dir="l" state="M"/>
    <connection from="E3" to="E4" fromLane="0" toLane="0" via=":J7_0_0" dir="l" state="M"/>
    <connection from="E4" to="E1" fromLane="0" toLane="0" via=":J4_0_0" dir="l" state="M"/>

    <connection from=":J4_0" to="E1" fromLane="0" toLane="0" dir="l" state="M"/>
    <connection from=":J4_1" to="-E4" fromLane="0" toLane="0" dir="r" state="M"/>
    <connection from=":J5_0" to="E2" fromLane="0" toLane="0" dir="l" state="M"/>
    <connection from=":J5_1" to="-E1" fromLane="0" toLane="0" dir="r" state="M"/>
    <connection from=":J6_0" to="-E2" fromLane="0" toLane="0" dir="r" state="M"/>
    <connection from=":J6_1" to="E3" fromLane="0" toLane="0" dir="l" state="M"/>
    <connection from=":J7_0" to="E4" fromLane="0" toLane="0" dir="l" state="M"/>
    <connection from=":J7_1" to="-E3" fromLane="0" toLane="0" dir="r" state="M"/>

</net>
