<?xml version="1.0" encoding="UTF-8"?>

<!-- generated on 2024-03-24 01:11:16 by Eclipse SUMO netedit Version 1.19.0
-->

<routes xmlns:xsi="http://www.w3.org/2001/XMLSchema-instance" xsi:noNamespaceSchemaLocation="http://sumo.dlr.de/xsd/routes_file.xsd">
    <!-- Routes -->
    <route id="r_0" edges="-E4 -E3 -E2 -E1 -E4"/>
    <route id="r_1" edges="E3 E4 E1 E2 E3"/>
    <!-- Vehicles, persons and containers (sorted by depart) -->
    <flow id="f_0" begin="0.00" route="r_0" end="3600.00" vehsPerHour="1800"/>
    <flow id="f_1" begin="0.00" route="r_1" end="3600.00" vehsPerHour="1800"/>
</routes>
